7

C -0.6400965870111626 0.022442281359691823 0.017783852777914208 
C 0.8773491007340803 -0.02439924165492368 -0.02559894162106108 
O 1.4458947755713556 1.087030932468076 -0.21184924933331992 
O 1.376402791452628 -1.1740068478359509 0.13092540258814994 
H -1.0540677722578904 -0.6321889447739203 -0.7549760334571134 
H -0.9927161737564264 -0.3158952310729427 0.9966442752445783 
H -1.0127661347325871 1.0370170515099635 -0.152929306199153 
