8

C -0.7542955261841914 0.009248801338110227 -0.05032591112472543 
C 0.754295369574497 -0.009248626144117736 0.05032603249850831 
H -1.0930938498328102 0.9032333744783438 -0.5823282907037728 
H -1.1142314282525152 -0.87083083686362 -0.5915524137472471 
H -1.2060317502185025 0.00944997760576202 0.9461453378660798 
H 1.0930944206981041 -0.9032345644374347 0.5823266188659942 
H 1.1142308350468102 0.8708300589856497 0.5915540019771358 
H 1.2060319291685875 -0.009448184962715272 -0.9461453756319684 
